Version 4
SHEET 1 54612 46876
WIRE 43392 33200 43296 33200
WIRE 43680 33200 43472 33200
WIRE 44080 33200 43984 33200
WIRE 44368 33200 44160 33200
WIRE 44768 33200 44672 33200
WIRE 45056 33200 44848 33200
WIRE 45456 33200 45360 33200
WIRE 45744 33200 45536 33200
WIRE 46144 33200 46048 33200
WIRE 46432 33200 46224 33200
WIRE 43296 33280 43296 33200
WIRE 43408 33280 43296 33280
WIRE 43568 33280 43472 33280
WIRE 43984 33280 43984 33200
WIRE 44096 33280 43984 33280
WIRE 44256 33280 44160 33280
WIRE 44672 33280 44672 33200
WIRE 44784 33280 44672 33280
WIRE 44944 33280 44848 33280
WIRE 45360 33280 45360 33200
WIRE 45472 33280 45360 33280
WIRE 45632 33280 45536 33280
WIRE 46048 33280 46048 33200
WIRE 46160 33280 46048 33280
WIRE 46320 33280 46224 33280
WIRE 43520 33360 43520 33152
WIRE 44208 33360 44208 33152
WIRE 44896 33360 44896 33152
WIRE 45584 33360 45584 33152
WIRE 46272 33360 46272 33152
WIRE 43296 33376 43296 33280
WIRE 43296 33376 43264 33376
WIRE 43488 33376 43296 33376
WIRE 43984 33376 43984 33280
WIRE 43984 33376 43952 33376
WIRE 44176 33376 43984 33376
WIRE 44672 33376 44672 33280
WIRE 44672 33376 44640 33376
WIRE 44864 33376 44672 33376
WIRE 45360 33376 45360 33280
WIRE 45360 33376 45328 33376
WIRE 45552 33376 45360 33376
WIRE 46048 33376 46048 33280
WIRE 46048 33376 46016 33376
WIRE 46240 33376 46048 33376
WIRE 43568 33392 43568 33280
WIRE 43568 33392 43552 33392
WIRE 43584 33392 43568 33392
WIRE 43680 33392 43680 33200
WIRE 43680 33392 43648 33392
WIRE 43760 33392 43680 33392
WIRE 44256 33392 44256 33280
WIRE 44256 33392 44240 33392
WIRE 44288 33392 44256 33392
WIRE 44368 33392 44368 33200
WIRE 44368 33392 44352 33392
WIRE 44448 33392 44368 33392
WIRE 44944 33392 44944 33280
WIRE 44944 33392 44928 33392
WIRE 44976 33392 44944 33392
WIRE 45056 33392 45056 33200
WIRE 45056 33392 45040 33392
WIRE 45136 33392 45056 33392
WIRE 45632 33392 45632 33280
WIRE 45632 33392 45616 33392
WIRE 45664 33392 45632 33392
WIRE 45744 33392 45744 33200
WIRE 45744 33392 45728 33392
WIRE 45824 33392 45744 33392
WIRE 46320 33392 46320 33280
WIRE 46320 33392 46304 33392
WIRE 46352 33392 46320 33392
WIRE 46432 33392 46432 33200
WIRE 46432 33392 46416 33392
WIRE 46512 33392 46432 33392
WIRE 43488 33408 43440 33408
WIRE 44176 33408 44128 33408
WIRE 44864 33408 44816 33408
WIRE 45552 33408 45504 33408
WIRE 46240 33408 46192 33408
WIRE 40416 33440 40320 33440
WIRE 40656 33440 40416 33440
WIRE 40896 33440 40656 33440
WIRE 41344 33440 40896 33440
WIRE 42416 33440 41344 33440
WIRE 42640 33440 42416 33440
WIRE 40656 33456 40656 33440
WIRE 40896 33456 40896 33440
WIRE 41344 33456 41344 33440
WIRE 42416 33456 42416 33440
WIRE 40416 33472 40416 33440
WIRE 43440 33488 43440 33408
WIRE 44128 33488 44128 33408
WIRE 44816 33488 44816 33408
WIRE 45504 33488 45504 33408
WIRE 46192 33488 46192 33408
WIRE 43520 33520 43520 33424
WIRE 44208 33520 44208 33424
WIRE 44896 33520 44896 33424
WIRE 45584 33520 45584 33424
WIRE 46272 33520 46272 33424
WIRE 40416 33568 40416 33552
WIRE 40592 33568 40592 33376
WIRE 40592 33568 40416 33568
WIRE 40656 33568 40656 33536
WIRE 40848 33568 40848 33376
WIRE 40848 33568 40656 33568
WIRE 40896 33568 40896 33536
WIRE 41072 33568 41072 33376
WIRE 41072 33568 40896 33568
WIRE 41344 33568 41344 33536
WIRE 41520 33568 41520 33376
WIRE 41520 33568 41344 33568
WIRE 42416 33568 42416 33536
WIRE 42592 33568 42592 33376
WIRE 42592 33568 42416 33568
WIRE 41104 33632 40320 33632
WIRE 41568 33632 41104 33632
WIRE 41792 33632 41568 33632
WIRE 42000 33632 41792 33632
WIRE 42208 33632 42000 33632
WIRE 42640 33632 42208 33632
WIRE 38896 33648 38896 33536
WIRE 39584 33648 39584 33552
WIRE 39936 33648 39936 33568
WIRE 40048 33648 40048 33568
WIRE 41104 33648 41104 33632
WIRE 41568 33648 41568 33632
WIRE 41792 33648 41792 33632
WIRE 42208 33648 42208 33632
WIRE 39056 33664 39056 33552
WIRE 39264 33664 39264 33552
WIRE 43392 33712 43296 33712
WIRE 43680 33712 43472 33712
WIRE 44080 33712 43984 33712
WIRE 44368 33712 44160 33712
WIRE 44768 33712 44672 33712
WIRE 45056 33712 44848 33712
WIRE 45456 33712 45360 33712
WIRE 45744 33712 45536 33712
WIRE 46144 33712 46048 33712
WIRE 46432 33712 46224 33712
WIRE 41104 33744 41104 33728
WIRE 41296 33744 41296 33376
WIRE 41296 33744 41104 33744
WIRE 41568 33744 41568 33728
WIRE 41760 33744 41760 33376
WIRE 41760 33744 41568 33744
WIRE 41792 33744 41792 33728
WIRE 41968 33744 41968 33376
WIRE 41968 33744 41792 33744
WIRE 42000 33744 42000 33712
WIRE 42176 33744 42176 33376
WIRE 42176 33744 42000 33744
WIRE 42208 33744 42208 33728
WIRE 42384 33744 42384 33376
WIRE 42384 33744 42208 33744
WIRE 43296 33792 43296 33712
WIRE 43408 33792 43296 33792
WIRE 43568 33792 43472 33792
WIRE 43984 33792 43984 33712
WIRE 44096 33792 43984 33792
WIRE 44256 33792 44160 33792
WIRE 44672 33792 44672 33712
WIRE 44784 33792 44672 33792
WIRE 44944 33792 44848 33792
WIRE 45360 33792 45360 33712
WIRE 45472 33792 45360 33792
WIRE 45632 33792 45536 33792
WIRE 46048 33792 46048 33712
WIRE 46160 33792 46048 33792
WIRE 46320 33792 46224 33792
WIRE 39936 33808 39936 33728
WIRE 40048 33808 40048 33728
WIRE 40416 33824 40320 33824
WIRE 40896 33824 40416 33824
WIRE 42208 33824 40896 33824
WIRE 42416 33824 42208 33824
WIRE 42640 33824 42416 33824
WIRE 40896 33840 40896 33824
WIRE 42416 33840 42416 33824
WIRE 38896 33856 38896 33728
WIRE 39056 33856 39056 33744
WIRE 39264 33856 39264 33744
WIRE 39584 33856 39584 33728
WIRE 42208 33856 42208 33824
WIRE 40416 33872 40416 33824
WIRE 43520 33872 43520 33664
WIRE 44208 33872 44208 33664
WIRE 44896 33872 44896 33664
WIRE 45584 33872 45584 33664
WIRE 46272 33872 46272 33664
WIRE 43296 33888 43296 33792
WIRE 43296 33888 43264 33888
WIRE 43488 33888 43296 33888
WIRE 43984 33888 43984 33792
WIRE 43984 33888 43952 33888
WIRE 44176 33888 43984 33888
WIRE 44672 33888 44672 33792
WIRE 44672 33888 44640 33888
WIRE 44864 33888 44672 33888
WIRE 45360 33888 45360 33792
WIRE 45360 33888 45328 33888
WIRE 45552 33888 45360 33888
WIRE 46048 33888 46048 33792
WIRE 46048 33888 46016 33888
WIRE 46240 33888 46048 33888
WIRE 43568 33904 43568 33792
WIRE 43568 33904 43552 33904
WIRE 43600 33904 43568 33904
WIRE 43680 33904 43680 33712
WIRE 43680 33904 43664 33904
WIRE 43760 33904 43680 33904
WIRE 44256 33904 44256 33792
WIRE 44256 33904 44240 33904
WIRE 44288 33904 44256 33904
WIRE 44368 33904 44368 33712
WIRE 44368 33904 44352 33904
WIRE 44448 33904 44368 33904
WIRE 44944 33904 44944 33792
WIRE 44944 33904 44928 33904
WIRE 44976 33904 44944 33904
WIRE 45056 33904 45056 33712
WIRE 45056 33904 45040 33904
WIRE 45136 33904 45056 33904
WIRE 45632 33904 45632 33792
WIRE 45632 33904 45616 33904
WIRE 45664 33904 45632 33904
WIRE 45744 33904 45744 33712
WIRE 45744 33904 45728 33904
WIRE 45824 33904 45744 33904
WIRE 46320 33904 46320 33792
WIRE 46320 33904 46304 33904
WIRE 46352 33904 46320 33904
WIRE 46432 33904 46432 33712
WIRE 46432 33904 46416 33904
WIRE 46512 33904 46432 33904
WIRE 43488 33920 43440 33920
WIRE 44176 33920 44128 33920
WIRE 44864 33920 44816 33920
WIRE 45552 33920 45504 33920
WIRE 46240 33920 46192 33920
WIRE 40896 33936 40896 33920
WIRE 41072 33936 41072 33568
WIRE 41072 33936 40896 33936
WIRE 42208 33952 42208 33936
WIRE 42384 33952 42384 33744
WIRE 42384 33952 42208 33952
WIRE 42416 33952 42416 33920
WIRE 42592 33952 42592 33568
WIRE 42592 33952 42416 33952
WIRE 40416 33968 40416 33952
WIRE 40592 33968 40592 33568
WIRE 40592 33968 40416 33968
WIRE 43440 34000 43440 33920
WIRE 44128 34000 44128 33920
WIRE 44816 34000 44816 33920
WIRE 45504 34000 45504 33920
WIRE 46192 34000 46192 33920
WIRE 40656 34016 40320 34016
WIRE 41104 34016 40656 34016
WIRE 41344 34016 41104 34016
WIRE 41568 34016 41344 34016
WIRE 41792 34016 41568 34016
WIRE 42000 34016 41792 34016
WIRE 42640 34016 42000 34016
WIRE 41104 34032 41104 34016
WIRE 41344 34032 41344 34016
WIRE 41568 34032 41568 34016
WIRE 41792 34032 41792 34016
WIRE 42000 34032 42000 34016
WIRE 43520 34032 43520 33936
WIRE 44208 34032 44208 33936
WIRE 44896 34032 44896 33936
WIRE 45584 34032 45584 33936
WIRE 46272 34032 46272 33936
WIRE 40656 34048 40656 34016
WIRE 40656 34144 40656 34128
WIRE 40848 34144 40848 33568
WIRE 40848 34144 40656 34144
WIRE 41104 34144 41104 34112
WIRE 41296 34144 41296 33744
WIRE 41296 34144 41104 34144
WIRE 41344 34144 41344 34112
WIRE 41520 34144 41520 33568
WIRE 41520 34144 41344 34144
WIRE 41568 34144 41568 34112
WIRE 41760 34144 41760 33744
WIRE 41760 34144 41568 34144
WIRE 41792 34144 41792 34112
WIRE 41968 34144 41968 33744
WIRE 41968 34144 41792 34144
WIRE 42000 34144 42000 34112
WIRE 42176 34144 42176 33744
WIRE 42176 34144 42000 34144
WIRE 40432 34208 40320 34208
WIRE 40656 34208 40432 34208
WIRE 41568 34208 40656 34208
WIRE 41792 34208 41568 34208
WIRE 42208 34208 41792 34208
WIRE 42416 34208 42208 34208
WIRE 42640 34208 42416 34208
WIRE 40432 34272 40432 34208
WIRE 40656 34272 40656 34208
WIRE 41568 34272 41568 34208
WIRE 41792 34272 41792 34208
WIRE 42208 34272 42208 34208
WIRE 42416 34272 42416 34208
WIRE 40432 34368 40432 34352
WIRE 40592 34368 40592 33968
WIRE 40592 34368 40432 34368
WIRE 40656 34368 40656 34352
WIRE 40848 34368 40848 34144
WIRE 40848 34368 40656 34368
WIRE 41568 34368 41568 34352
WIRE 41760 34368 41760 34144
WIRE 41760 34368 41568 34368
WIRE 41792 34368 41792 34352
WIRE 41968 34368 41968 34144
WIRE 41968 34368 41792 34368
WIRE 42208 34368 42208 34352
WIRE 42384 34368 42384 33952
WIRE 42384 34368 42208 34368
WIRE 42416 34368 42416 34352
WIRE 42592 34368 42592 33952
WIRE 42592 34368 42416 34368
WIRE 40896 34432 40320 34432
WIRE 41104 34432 40896 34432
WIRE 41328 34432 41104 34432
WIRE 42000 34432 41328 34432
WIRE 42640 34432 42000 34432
WIRE 40896 34464 40896 34432
WIRE 41104 34464 41104 34432
WIRE 41328 34464 41328 34432
WIRE 42000 34464 42000 34432
WIRE 40896 34560 40896 34544
WIRE 41072 34560 41072 33936
WIRE 41072 34560 40896 34560
WIRE 41104 34560 41104 34544
WIRE 41296 34560 41296 34144
WIRE 41296 34560 41104 34560
WIRE 41328 34560 41328 34544
WIRE 41520 34560 41520 34144
WIRE 41520 34560 41328 34560
WIRE 42000 34560 42000 34544
WIRE 42176 34560 42176 34144
WIRE 42176 34560 42000 34560
WIRE 43408 34704 43376 34704
WIRE 43648 34704 43488 34704
WIRE 44144 34720 44112 34720
WIRE 44384 34720 44224 34720
WIRE 40592 34736 40592 34368
WIRE 40848 34736 40848 34368
WIRE 41072 34736 41072 34560
WIRE 41296 34736 41296 34560
WIRE 41520 34736 41520 34560
WIRE 41760 34736 41760 34368
WIRE 41968 34736 41968 34368
WIRE 42176 34736 42176 34560
WIRE 42384 34736 42384 34368
WIRE 42592 34736 42592 34368
WIRE 44896 34736 44864 34736
WIRE 45136 34736 44976 34736
WIRE 45632 34752 45600 34752
WIRE 45872 34752 45712 34752
WIRE 46384 34752 46352 34752
WIRE 46624 34752 46464 34752
WIRE 43536 34784 43536 34656
WIRE 43264 34800 43248 34800
WIRE 43376 34800 43376 34704
WIRE 43376 34800 43344 34800
WIRE 43504 34800 43376 34800
WIRE 44272 34800 44272 34672
WIRE 43648 34816 43648 34704
WIRE 43648 34816 43568 34816
WIRE 43776 34816 43648 34816
WIRE 44000 34816 43984 34816
WIRE 44112 34816 44112 34720
WIRE 44112 34816 44080 34816
WIRE 44240 34816 44112 34816
WIRE 45024 34816 45024 34688
WIRE 43504 34832 43456 34832
WIRE 44384 34832 44384 34720
WIRE 44384 34832 44304 34832
WIRE 44512 34832 44384 34832
WIRE 44752 34832 44736 34832
WIRE 44864 34832 44864 34736
WIRE 44864 34832 44832 34832
WIRE 44992 34832 44864 34832
WIRE 45760 34832 45760 34704
WIRE 46512 34832 46512 34704
WIRE 44240 34848 44192 34848
WIRE 45136 34848 45136 34736
WIRE 45136 34848 45056 34848
WIRE 45264 34848 45136 34848
WIRE 45488 34848 45472 34848
WIRE 45600 34848 45600 34752
WIRE 45600 34848 45568 34848
WIRE 45728 34848 45600 34848
WIRE 46240 34848 46224 34848
WIRE 46352 34848 46352 34752
WIRE 46352 34848 46320 34848
WIRE 46480 34848 46352 34848
WIRE 44992 34864 44944 34864
WIRE 45872 34864 45872 34752
WIRE 45872 34864 45792 34864
WIRE 46000 34864 45872 34864
WIRE 46624 34864 46624 34752
WIRE 46624 34864 46544 34864
WIRE 46752 34864 46624 34864
WIRE 45728 34880 45680 34880
WIRE 46480 34880 46432 34880
WIRE 43456 34912 43456 34832
WIRE 44192 34928 44192 34848
WIRE 43536 34944 43536 34848
WIRE 44944 34944 44944 34864
WIRE 44272 34960 44272 34864
WIRE 45680 34960 45680 34880
WIRE 46432 34960 46432 34880
WIRE 45024 34976 45024 34880
WIRE 45760 34992 45760 34896
WIRE 46512 34992 46512 34896
WIRE 43408 35168 43376 35168
WIRE 43648 35168 43488 35168
WIRE 44144 35184 44112 35184
WIRE 44384 35184 44224 35184
WIRE 44896 35200 44864 35200
WIRE 45136 35200 44976 35200
WIRE 45632 35216 45600 35216
WIRE 45872 35216 45712 35216
WIRE 46384 35216 46352 35216
WIRE 46624 35216 46464 35216
WIRE 43536 35248 43536 35120
WIRE 43264 35264 43248 35264
WIRE 43376 35264 43376 35168
WIRE 43376 35264 43344 35264
WIRE 43504 35264 43376 35264
WIRE 44272 35264 44272 35136
WIRE 43648 35280 43648 35168
WIRE 43648 35280 43568 35280
WIRE 43776 35280 43648 35280
WIRE 44000 35280 43984 35280
WIRE 44112 35280 44112 35184
WIRE 44112 35280 44080 35280
WIRE 44240 35280 44112 35280
WIRE 45024 35280 45024 35152
WIRE 43504 35296 43456 35296
WIRE 44384 35296 44384 35184
WIRE 44384 35296 44304 35296
WIRE 44512 35296 44384 35296
WIRE 44752 35296 44736 35296
WIRE 44864 35296 44864 35200
WIRE 44864 35296 44832 35296
WIRE 44992 35296 44864 35296
WIRE 45760 35296 45760 35168
WIRE 46512 35296 46512 35168
WIRE 44240 35312 44192 35312
WIRE 45136 35312 45136 35200
WIRE 45136 35312 45056 35312
WIRE 45264 35312 45136 35312
WIRE 45488 35312 45472 35312
WIRE 45600 35312 45600 35216
WIRE 45600 35312 45568 35312
WIRE 45728 35312 45600 35312
WIRE 46240 35312 46224 35312
WIRE 46352 35312 46352 35216
WIRE 46352 35312 46320 35312
WIRE 46480 35312 46352 35312
WIRE 44992 35328 44944 35328
WIRE 45872 35328 45872 35216
WIRE 45872 35328 45792 35328
WIRE 46000 35328 45872 35328
WIRE 46624 35328 46624 35216
WIRE 46624 35328 46544 35328
WIRE 46752 35328 46624 35328
WIRE 45728 35344 45680 35344
WIRE 46480 35344 46432 35344
WIRE 43456 35376 43456 35296
WIRE 44192 35392 44192 35312
WIRE 43536 35408 43536 35312
WIRE 44944 35408 44944 35328
WIRE 44272 35424 44272 35328
WIRE 45680 35424 45680 35344
WIRE 46432 35424 46432 35344
WIRE 45024 35440 45024 35344
WIRE 45760 35456 45760 35360
WIRE 46512 35456 46512 35360
WIRE 43408 35840 43312 35840
WIRE 43696 35840 43488 35840
WIRE 44096 35840 44000 35840
WIRE 44384 35840 44176 35840
WIRE 44784 35840 44688 35840
WIRE 45072 35840 44864 35840
WIRE 45472 35840 45376 35840
WIRE 45760 35840 45552 35840
WIRE 46160 35840 46064 35840
WIRE 46448 35840 46240 35840
WIRE 40384 35856 40320 35856
WIRE 40864 35856 40384 35856
WIRE 41088 35856 40864 35856
WIRE 41312 35856 41088 35856
WIRE 41760 35856 41312 35856
WIRE 42208 35856 41760 35856
WIRE 42432 35856 42208 35856
WIRE 42608 35856 42432 35856
WIRE 40384 35888 40384 35856
WIRE 40864 35888 40864 35856
WIRE 41088 35888 41088 35856
WIRE 41312 35888 41312 35856
WIRE 41760 35888 41760 35856
WIRE 42208 35888 42208 35856
WIRE 42432 35888 42432 35856
WIRE 43312 35920 43312 35840
WIRE 43424 35920 43312 35920
WIRE 43584 35920 43488 35920
WIRE 44000 35920 44000 35840
WIRE 44112 35920 44000 35920
WIRE 44272 35920 44176 35920
WIRE 44688 35920 44688 35840
WIRE 44800 35920 44688 35920
WIRE 44960 35920 44864 35920
WIRE 45376 35920 45376 35840
WIRE 45488 35920 45376 35920
WIRE 45648 35920 45552 35920
WIRE 46064 35920 46064 35840
WIRE 46176 35920 46064 35920
WIRE 46336 35920 46240 35920
WIRE 42208 35984 42208 35968
WIRE 42400 35984 42400 35792
WIRE 42400 35984 42208 35984
WIRE 42432 35984 42432 35968
WIRE 42624 35984 42624 35792
WIRE 42624 35984 42432 35984
WIRE 40384 36000 40384 35968
WIRE 40608 36000 40608 35792
WIRE 40608 36000 40384 36000
WIRE 40864 36000 40864 35968
WIRE 41056 36000 41056 35792
WIRE 41056 36000 40864 36000
WIRE 41088 36000 41088 35968
WIRE 41280 36000 41280 35792
WIRE 41280 36000 41088 36000
WIRE 41312 36000 41312 35968
WIRE 41504 36000 41504 35792
WIRE 41504 36000 41312 36000
WIRE 41760 36000 41760 35968
WIRE 41952 36000 41952 35792
WIRE 41952 36000 41760 36000
WIRE 43536 36000 43536 35792
WIRE 44224 36000 44224 35792
WIRE 44912 36000 44912 35792
WIRE 45600 36000 45600 35792
WIRE 46288 36000 46288 35792
WIRE 43312 36016 43312 35920
WIRE 43312 36016 43280 36016
WIRE 43504 36016 43312 36016
WIRE 44000 36016 44000 35920
WIRE 44000 36016 43968 36016
WIRE 44192 36016 44000 36016
WIRE 44688 36016 44688 35920
WIRE 44688 36016 44656 36016
WIRE 44880 36016 44688 36016
WIRE 45376 36016 45376 35920
WIRE 45376 36016 45344 36016
WIRE 45568 36016 45376 36016
WIRE 46064 36016 46064 35920
WIRE 46064 36016 46032 36016
WIRE 46256 36016 46064 36016
WIRE 43584 36032 43584 35920
WIRE 43584 36032 43568 36032
WIRE 43600 36032 43584 36032
WIRE 43696 36032 43696 35840
WIRE 43696 36032 43664 36032
WIRE 43776 36032 43696 36032
WIRE 44272 36032 44272 35920
WIRE 44272 36032 44256 36032
WIRE 44304 36032 44272 36032
WIRE 44384 36032 44384 35840
WIRE 44384 36032 44368 36032
WIRE 44464 36032 44384 36032
WIRE 44960 36032 44960 35920
WIRE 44960 36032 44944 36032
WIRE 44992 36032 44960 36032
WIRE 45072 36032 45072 35840
WIRE 45072 36032 45056 36032
WIRE 45152 36032 45072 36032
WIRE 45648 36032 45648 35920
WIRE 45648 36032 45632 36032
WIRE 45680 36032 45648 36032
WIRE 45760 36032 45760 35840
WIRE 45760 36032 45744 36032
WIRE 45840 36032 45760 36032
WIRE 46336 36032 46336 35920
WIRE 46336 36032 46320 36032
WIRE 46368 36032 46336 36032
WIRE 46448 36032 46448 35840
WIRE 46448 36032 46432 36032
WIRE 46528 36032 46448 36032
WIRE 40640 36048 40320 36048
WIRE 41536 36048 40640 36048
WIRE 41984 36048 41536 36048
WIRE 42608 36048 41984 36048
WIRE 43504 36048 43456 36048
WIRE 44192 36048 44144 36048
WIRE 44880 36048 44832 36048
WIRE 45568 36048 45520 36048
WIRE 46256 36048 46208 36048
WIRE 40640 36064 40640 36048
WIRE 41536 36080 41536 36048
WIRE 41984 36080 41984 36048
WIRE 43456 36128 43456 36048
WIRE 44144 36128 44144 36048
WIRE 44832 36128 44832 36048
WIRE 45520 36128 45520 36048
WIRE 46208 36128 46208 36048
WIRE 43536 36160 43536 36064
WIRE 44224 36160 44224 36064
WIRE 44912 36160 44912 36064
WIRE 45600 36160 45600 36064
WIRE 46288 36160 46288 36064
WIRE 40640 36176 40640 36144
WIRE 40832 36176 40832 35792
WIRE 40832 36176 40640 36176
WIRE 41536 36176 41536 36160
WIRE 41728 36176 41728 35792
WIRE 41728 36176 41536 36176
WIRE 41984 36176 41984 36160
WIRE 42176 36176 42176 35792
WIRE 42176 36176 41984 36176
WIRE 40640 36240 40320 36240
WIRE 40864 36240 40640 36240
WIRE 41088 36240 40864 36240
WIRE 41536 36240 41088 36240
WIRE 41984 36240 41536 36240
WIRE 42432 36240 41984 36240
WIRE 42608 36240 42432 36240
WIRE 40640 36272 40640 36240
WIRE 40864 36272 40864 36240
WIRE 41088 36272 41088 36240
WIRE 41536 36272 41536 36240
WIRE 41984 36272 41984 36240
WIRE 42432 36272 42432 36240
WIRE 43408 36352 43312 36352
WIRE 43696 36352 43488 36352
WIRE 44096 36352 44000 36352
WIRE 44384 36352 44176 36352
WIRE 44784 36352 44688 36352
WIRE 45072 36352 44864 36352
WIRE 45472 36352 45376 36352
WIRE 45760 36352 45552 36352
WIRE 46160 36352 46064 36352
WIRE 46448 36352 46240 36352
WIRE 40640 36368 40640 36352
WIRE 40832 36368 40832 36176
WIRE 40832 36368 40640 36368
WIRE 40864 36368 40864 36352
WIRE 41056 36368 41056 36000
WIRE 41056 36368 40864 36368
WIRE 41088 36368 41088 36352
WIRE 41280 36368 41280 36000
WIRE 41280 36368 41088 36368
WIRE 41536 36368 41536 36352
WIRE 41728 36368 41728 36176
WIRE 41728 36368 41536 36368
WIRE 41984 36368 41984 36352
WIRE 42176 36368 42176 36176
WIRE 42176 36368 41984 36368
WIRE 42432 36368 42432 36352
WIRE 42624 36368 42624 35984
WIRE 42624 36368 42432 36368
WIRE 40384 36432 40320 36432
WIRE 41312 36432 40384 36432
WIRE 41760 36432 41312 36432
WIRE 42208 36432 41760 36432
WIRE 42608 36432 42208 36432
WIRE 43312 36432 43312 36352
WIRE 43424 36432 43312 36432
WIRE 43584 36432 43488 36432
WIRE 44000 36432 44000 36352
WIRE 44112 36432 44000 36432
WIRE 44272 36432 44176 36432
WIRE 44688 36432 44688 36352
WIRE 44800 36432 44688 36432
WIRE 44960 36432 44864 36432
WIRE 45376 36432 45376 36352
WIRE 45488 36432 45376 36432
WIRE 45648 36432 45552 36432
WIRE 46064 36432 46064 36352
WIRE 46176 36432 46064 36432
WIRE 46336 36432 46240 36432
WIRE 41312 36464 41312 36432
WIRE 41760 36464 41760 36432
WIRE 42208 36464 42208 36432
WIRE 40384 36480 40384 36432
WIRE 43536 36512 43536 36304
WIRE 44224 36512 44224 36304
WIRE 44912 36512 44912 36304
WIRE 45600 36512 45600 36304
WIRE 46288 36512 46288 36304
WIRE 43312 36528 43312 36432
WIRE 43312 36528 43280 36528
WIRE 43504 36528 43312 36528
WIRE 44000 36528 44000 36432
WIRE 44000 36528 43968 36528
WIRE 44192 36528 44000 36528
WIRE 44688 36528 44688 36432
WIRE 44688 36528 44656 36528
WIRE 44880 36528 44688 36528
WIRE 45376 36528 45376 36432
WIRE 45376 36528 45344 36528
WIRE 45568 36528 45376 36528
WIRE 46064 36528 46064 36432
WIRE 46064 36528 46032 36528
WIRE 46256 36528 46064 36528
WIRE 43584 36544 43584 36432
WIRE 43584 36544 43568 36544
WIRE 43616 36544 43584 36544
WIRE 43696 36544 43696 36352
WIRE 43696 36544 43680 36544
WIRE 43776 36544 43696 36544
WIRE 44272 36544 44272 36432
WIRE 44272 36544 44256 36544
WIRE 44304 36544 44272 36544
WIRE 44384 36544 44384 36352
WIRE 44384 36544 44368 36544
WIRE 44464 36544 44384 36544
WIRE 44960 36544 44960 36432
WIRE 44960 36544 44944 36544
WIRE 44992 36544 44960 36544
WIRE 45072 36544 45072 36352
WIRE 45072 36544 45056 36544
WIRE 45152 36544 45072 36544
WIRE 45648 36544 45648 36432
WIRE 45648 36544 45632 36544
WIRE 45680 36544 45648 36544
WIRE 45760 36544 45760 36352
WIRE 45760 36544 45744 36544
WIRE 45840 36544 45760 36544
WIRE 46336 36544 46336 36432
WIRE 46336 36544 46320 36544
WIRE 46368 36544 46336 36544
WIRE 46448 36544 46448 36352
WIRE 46448 36544 46432 36544
WIRE 46528 36544 46448 36544
WIRE 41312 36560 41312 36544
WIRE 41504 36560 41504 36000
WIRE 41504 36560 41312 36560
WIRE 41760 36560 41760 36544
WIRE 41952 36560 41952 36000
WIRE 41952 36560 41760 36560
WIRE 42208 36560 42208 36544
WIRE 42400 36560 42400 35984
WIRE 42400 36560 42208 36560
WIRE 43504 36560 43456 36560
WIRE 44192 36560 44144 36560
WIRE 44880 36560 44832 36560
WIRE 45568 36560 45520 36560
WIRE 46256 36560 46208 36560
WIRE 40384 36576 40384 36560
WIRE 40608 36576 40608 36000
WIRE 40608 36576 40384 36576
WIRE 40384 36624 40320 36624
WIRE 40864 36624 40384 36624
WIRE 41312 36624 40864 36624
WIRE 42208 36624 41312 36624
WIRE 42432 36624 42208 36624
WIRE 42608 36624 42432 36624
WIRE 43456 36640 43456 36560
WIRE 44144 36640 44144 36560
WIRE 44832 36640 44832 36560
WIRE 45520 36640 45520 36560
WIRE 46208 36640 46208 36560
WIRE 40864 36656 40864 36624
WIRE 41312 36656 41312 36624
WIRE 42208 36656 42208 36624
WIRE 42432 36656 42432 36624
WIRE 40384 36672 40384 36624
WIRE 43536 36672 43536 36576
WIRE 44224 36672 44224 36576
WIRE 44912 36672 44912 36576
WIRE 45600 36672 45600 36576
WIRE 46288 36672 46288 36576
WIRE 40608 36752 40608 36576
WIRE 40608 36752 40384 36752
WIRE 40864 36752 40864 36736
WIRE 41056 36752 41056 36368
WIRE 41056 36752 40864 36752
WIRE 41312 36752 41312 36736
WIRE 41504 36752 41504 36560
WIRE 41504 36752 41312 36752
WIRE 42208 36752 42208 36736
WIRE 42400 36752 42400 36560
WIRE 42400 36752 42208 36752
WIRE 42432 36752 42432 36736
WIRE 42624 36752 42624 36368
WIRE 42624 36752 42432 36752
WIRE 40640 36784 40320 36784
WIRE 41088 36784 40640 36784
WIRE 41536 36784 41088 36784
WIRE 41760 36784 41536 36784
WIRE 41984 36784 41760 36784
WIRE 42608 36784 41984 36784
WIRE 40640 36816 40640 36784
WIRE 41088 36816 41088 36784
WIRE 41536 36816 41536 36784
WIRE 41760 36816 41760 36784
WIRE 41984 36816 41984 36784
WIRE 40640 36912 40640 36896
WIRE 40832 36912 40832 36368
WIRE 40832 36912 40640 36912
WIRE 41088 36912 41088 36896
WIRE 41280 36912 41280 36368
WIRE 41280 36912 41088 36912
WIRE 41536 36912 41536 36896
WIRE 41728 36912 41728 36368
WIRE 41728 36912 41536 36912
WIRE 41760 36912 41760 36896
WIRE 41952 36912 41952 36560
WIRE 41952 36912 41760 36912
WIRE 41984 36912 41984 36896
WIRE 42176 36912 42176 36368
WIRE 42176 36912 41984 36912
WIRE 40640 36976 40320 36976
WIRE 41760 36976 40640 36976
WIRE 41984 36976 41760 36976
WIRE 42608 36976 41984 36976
WIRE 40640 37008 40640 36976
WIRE 41760 37008 41760 36976
WIRE 41984 37008 41984 36976
WIRE 40640 37104 40640 37088
WIRE 40832 37104 40832 36912
WIRE 40832 37104 40640 37104
WIRE 41760 37104 41760 37088
WIRE 41952 37104 41952 36912
WIRE 41952 37104 41760 37104
WIRE 41984 37104 41984 37088
WIRE 42176 37104 42176 36912
WIRE 42176 37104 41984 37104
WIRE 40384 37168 40320 37168
WIRE 40864 37168 40384 37168
WIRE 41088 37168 40864 37168
WIRE 41312 37168 41088 37168
WIRE 41536 37168 41312 37168
WIRE 42208 37168 41536 37168
WIRE 42432 37168 42208 37168
WIRE 42608 37168 42432 37168
WIRE 40864 37200 40864 37168
WIRE 41088 37200 41088 37168
WIRE 41312 37200 41312 37168
WIRE 41536 37200 41536 37168
WIRE 42208 37200 42208 37168
WIRE 42432 37200 42432 37168
WIRE 40384 37216 40384 37168
WIRE 43392 37216 43360 37216
WIRE 43632 37216 43472 37216
WIRE 44128 37232 44096 37232
WIRE 44368 37232 44208 37232
WIRE 44880 37248 44848 37248
WIRE 45120 37248 44960 37248
WIRE 45616 37264 45584 37264
WIRE 45856 37264 45696 37264
WIRE 46368 37264 46336 37264
WIRE 46608 37264 46448 37264
WIRE 40864 37296 40864 37280
WIRE 41056 37296 41056 36752
WIRE 41056 37296 40864 37296
WIRE 41088 37296 41088 37280
WIRE 41280 37296 41280 36912
WIRE 41280 37296 41088 37296
WIRE 41312 37296 41312 37280
WIRE 41504 37296 41504 36752
WIRE 41504 37296 41312 37296
WIRE 41536 37296 41536 37280
WIRE 41728 37296 41728 36912
WIRE 41728 37296 41536 37296
WIRE 42208 37296 42208 37280
WIRE 42400 37296 42400 36752
WIRE 42400 37296 42208 37296
WIRE 42432 37296 42432 37280
WIRE 42624 37296 42624 36752
WIRE 42624 37296 42432 37296
WIRE 43520 37296 43520 37168
WIRE 40384 37312 40384 37296
WIRE 40608 37312 40608 36752
WIRE 40608 37312 40384 37312
WIRE 43248 37312 43232 37312
WIRE 43360 37312 43360 37216
WIRE 43360 37312 43328 37312
WIRE 43488 37312 43360 37312
WIRE 44256 37312 44256 37184
WIRE 43632 37328 43632 37216
WIRE 43632 37328 43552 37328
WIRE 43760 37328 43632 37328
WIRE 43984 37328 43968 37328
WIRE 44096 37328 44096 37232
WIRE 44096 37328 44064 37328
WIRE 44224 37328 44096 37328
WIRE 45008 37328 45008 37200
WIRE 43488 37344 43440 37344
WIRE 44368 37344 44368 37232
WIRE 44368 37344 44288 37344
WIRE 44496 37344 44368 37344
WIRE 44736 37344 44720 37344
WIRE 44848 37344 44848 37248
WIRE 44848 37344 44816 37344
WIRE 44976 37344 44848 37344
WIRE 45744 37344 45744 37216
WIRE 46496 37344 46496 37216
WIRE 40640 37360 40320 37360
WIRE 41536 37360 40640 37360
WIRE 41984 37360 41536 37360
WIRE 42208 37360 41984 37360
WIRE 42608 37360 42208 37360
WIRE 44224 37360 44176 37360
WIRE 45120 37360 45120 37248
WIRE 45120 37360 45040 37360
WIRE 45248 37360 45120 37360
WIRE 45472 37360 45456 37360
WIRE 45584 37360 45584 37264
WIRE 45584 37360 45552 37360
WIRE 45712 37360 45584 37360
WIRE 46224 37360 46208 37360
WIRE 46336 37360 46336 37264
WIRE 46336 37360 46304 37360
WIRE 46464 37360 46336 37360
WIRE 44976 37376 44928 37376
WIRE 45856 37376 45856 37264
WIRE 45856 37376 45776 37376
WIRE 45984 37376 45856 37376
WIRE 46608 37376 46608 37264
WIRE 46608 37376 46528 37376
WIRE 46736 37376 46608 37376
WIRE 40640 37392 40640 37360
WIRE 41536 37392 41536 37360
WIRE 41984 37392 41984 37360
WIRE 42208 37392 42208 37360
WIRE 45712 37392 45664 37392
WIRE 46464 37392 46416 37392
WIRE 43440 37424 43440 37344
WIRE 44176 37440 44176 37360
WIRE 43520 37456 43520 37360
WIRE 44928 37456 44928 37376
WIRE 44256 37472 44256 37376
WIRE 45664 37472 45664 37392
WIRE 46416 37472 46416 37392
WIRE 45008 37488 45008 37392
WIRE 40640 37504 40640 37472
WIRE 40832 37504 40832 37104
WIRE 40832 37504 40640 37504
WIRE 41536 37504 41536 37472
WIRE 41728 37504 41728 37296
WIRE 41728 37504 41536 37504
WIRE 41984 37504 41984 37472
WIRE 42176 37504 42176 37104
WIRE 42176 37504 41984 37504
WIRE 42208 37504 42208 37472
WIRE 42400 37504 42400 37296
WIRE 42400 37504 42208 37504
WIRE 45744 37504 45744 37408
WIRE 46496 37504 46496 37408
WIRE 40384 37552 40320 37552
WIRE 40880 37552 40384 37552
WIRE 41104 37552 40880 37552
WIRE 41328 37552 41104 37552
WIRE 41760 37552 41328 37552
WIRE 42432 37552 41760 37552
WIRE 42608 37552 42432 37552
WIRE 41760 37584 41760 37552
WIRE 42432 37584 42432 37552
WIRE 40384 37600 40384 37552
WIRE 40880 37600 40880 37552
WIRE 41104 37600 41104 37552
WIRE 41328 37600 41328 37552
WIRE 41760 37680 41760 37664
WIRE 41952 37680 41952 37104
WIRE 41952 37680 41760 37680
WIRE 42432 37680 42432 37664
WIRE 42624 37680 42624 37296
WIRE 42624 37680 42432 37680
WIRE 43392 37680 43360 37680
WIRE 43632 37680 43472 37680
WIRE 40384 37696 40384 37680
WIRE 40608 37696 40608 37312
WIRE 40608 37696 40384 37696
WIRE 40880 37696 40880 37680
WIRE 41056 37696 41056 37296
WIRE 41056 37696 40880 37696
WIRE 41104 37696 41104 37680
WIRE 41280 37696 41280 37296
WIRE 41280 37696 41104 37696
WIRE 41328 37696 41328 37680
WIRE 41504 37696 41504 37296
WIRE 41504 37696 41328 37696
WIRE 44128 37696 44096 37696
WIRE 44368 37696 44208 37696
WIRE 44880 37712 44848 37712
WIRE 45120 37712 44960 37712
WIRE 45616 37728 45584 37728
WIRE 45856 37728 45696 37728
WIRE 46368 37728 46336 37728
WIRE 46608 37728 46448 37728
WIRE 40384 37744 40320 37744
WIRE 40640 37744 40384 37744
WIRE 40864 37744 40640 37744
WIRE 41088 37744 40864 37744
WIRE 41312 37744 41088 37744
WIRE 41536 37744 41312 37744
WIRE 41760 37744 41536 37744
WIRE 41984 37744 41760 37744
WIRE 42608 37744 41984 37744
WIRE 43520 37760 43520 37632
WIRE 40640 37776 40640 37744
WIRE 40864 37776 40864 37744
WIRE 41088 37776 41088 37744
WIRE 41312 37776 41312 37744
WIRE 41536 37776 41536 37744
WIRE 41760 37776 41760 37744
WIRE 41984 37776 41984 37744
WIRE 43248 37776 43232 37776
WIRE 43360 37776 43360 37680
WIRE 43360 37776 43328 37776
WIRE 43488 37776 43360 37776
WIRE 44256 37776 44256 37648
WIRE 40384 37792 40384 37744
WIRE 43632 37792 43632 37680
WIRE 43632 37792 43552 37792
WIRE 43760 37792 43632 37792
WIRE 43984 37792 43968 37792
WIRE 44096 37792 44096 37696
WIRE 44096 37792 44064 37792
WIRE 44224 37792 44096 37792
WIRE 45008 37792 45008 37664
WIRE 43488 37808 43440 37808